-------------------------------------------------------
          Amber 16 PMEMD                              2016
          -------------------------------------------------------

  [-O]verwriting output

File Assignments:

 Here is the input file:

!NVE run
&cntrl
imin = 0,                           ! No Minimization
nmropt = 0,                         ! No NMR restraints read

! Nature and format of the input
ntx = 5,                            ! Coordinates and velocities will be read
irest = 1,                          ! Do not run a new simulation

! Nature and format of the output
ioutfm = 1,			    ! NetCDF format for output files
ntxo = 1,                           ! rstrt file in ASCII format
ntpr = 500,                         ! inf in output every ntpr steps
ntwr = 500,                         ! rstrt file every ntwr steps
ntwx = 20,                          ! mdcrd file every ntwx steps
ntwv = -1,                          ! mdvel without velocities
ntwe = 0,                           ! Energies and temperatures not written in
idecomp = 0,                        ! No energy decomposition
iwrap = 1,                          ! Coordinates of the restart and mdcrd file

! Frozen or restrained atoms
ibelly = 0,                         ! No frozen atoms
ntr=0,                              ! Harmonic potential restraints

! Molecular dynamics
nstlim = 20000,                     ! Number of MD-steps
dt = 0.0005,                        ! Time step

! Temperature regulation
ntt = 0,                            ! Constant total energy

! P and V regulation
ntp = 0,                            ! No P control
ntb = 1,                            ! constant V

! SHAKE variables
ntc = 1,                            ! Bonds involving H are constrained
ntf = 1,                            ! Bond interaction involving H are ommited.

cut = 9.0,                          ! Nonbonded cutoff
/
&end

Note: ig = -1. Setting random seed to   402353 based on wallclock time in
      microseconds.

--------------------------------------------------------------------------------
   1.  RESOURCE   USE:
--------------------------------------------------------------------------------

 getting new box info from bottom of inpcrd
 NATOM  =   23082 NTYPES =      16 NBONH =   22055 MBONA  =    1038
 NTHETH =    2390 MTHETA =    1396 NPHIH =    4631 MPHIA  =    3488
 NHPARM =       0 NPARM  =       0 NNB   =   39434 NRES   =    7134
 NBONA  =    1038 NTHETA =    1396 NPHIA =    3488 NUMBND =      41
 NUMANG =      86 NPTRA  =      41 NATYP =      28 NPHB   =       1
 IFBOX  =       1 NMXRS  =      24 IFCAP =       0 NEXTRA =       0
 NCOPY  =       0

     BOX TYPE: RECTILINEAR

--------------------------------------------------------------------------------
   2.  CONTROL  DATA  FOR  THE  RUN
--------------------------------------------------------------------------------

default_name

General flags:
     imin    =       0, nmropt  =       0

Nature and format of input:
     ntx     =       5, irest   =       1, ntrx    =       1

Nature and format of output:
     ntxo    =       1, ntpr    =     500, ntrx    =       1, ntwr    =     500
     iwrap   =       1, ntwx    =      20, ntwv    =      -1, ntwe    =       0
     ioutfm  =       1, ntwprt  =       0, idecomp =       0, rbornstat=      0

Potential function:
     ntf     =       1, ntb     =       1, igb     =       0, nsnb    =      25
     ipol    =       0, gbsa    =       0, iesp    =       0
     dielc   =   1.00000, cut     =   9.00000, intdiel =   1.00000

Frozen or restrained atoms:
     ibelly  =       0, ntr     =       0

Molecular dynamics:
     nstlim  =     20000, nscm    =      1000, nrespa  =         1
     t       =   0.00000, dt      =   0.00050, vlimit  =  -1.00000

Ewald parameters:
     verbose =       0, ew_type =       0, nbflag  =       1, use_pme =       1
     vdwmeth =       1, eedmeth =       1, netfrc  =       1
     Box X =   60.254   Box Y =   72.816   Box Z =   52.562
     Alpha =   90.000   Beta  =   90.000   Gamma =   90.000
     NFFT1 =   64       NFFT2 =   80       NFFT3 =   56
     Cutoff=    9.000   Tol   =0.100E-04
     Ewald Coefficient =  0.30768
     Interpolation order =    4

--------------------------------------------------------------------------------
   3.  ATOMIC COORDINATES AND VELOCITIES
--------------------------------------------------------------------------------

default_name
 begin time read from input coords =    20.000 ps

 Number of triangulated 3-point waters found:     7002

     Sum of charges from parm topology file =  -0.00000008
     Forcing neutrality...

--------------------------------------------------------------------------------
   4.  RESULTS
 NSTEP =      500   TIME(PS) =      20.250  TEMP(K) =   300.86  PRESS =     0.0
 Etot   =    -52154.7471  EKtot   =     20698.9141  EPtot      =    -72853.6612
 BOND   =     12628.7246  ANGLE   =      1060.7880  DIHED      =      1327.2376
 1-4 NB =       439.4598  1-4 EEL =      4625.6652  VDWAALS    =     12706.1695
 EELEC  =   -105641.7059  EHBOND  =         0.0000  RESTRAINT  =         0.0000
 ------------------------------------------------------------------------------

      A V E R A G E S   O V E R      40 S T E P S

 NSTEP =    20000   TIME(PS) =      30.000  TEMP(K) =   299.54  PRESS =     0.0
 Etot   =    -52154.3402  EKtot   =     20608.1011  EPtot      =    -72762.4414
 BOND   =     12784.4216  ANGLE   =      1057.0392  DIHED      =      1322.3624
 1-4 NB =       446.7914  1-4 EEL =      4648.8437  VDWAALS    =     12841.9671
 EELEC  =   -105863.8667  EHBOND  =         0.0000  RESTRAINT  =         0.0000
 ------------------------------------------------------------------------------

      R M S  F L U C T U A T I O N S

 NSTEP =    20000   TIME(PS) =      30.000  TEMP(K) =     1.30  PRESS =     0.0
 Etot   =         2.1562  EKtot   =        89.3515  EPtot      =        90.3951
 BOND   =       103.6772  ANGLE   =        21.8705  DIHED      =        13.3153
 1-4 NB =         7.6890  1-4 EEL =        21.6929  VDWAALS    =       158.4219
 EELEC  =       233.9060  EHBOND  =         0.0000  RESTRAINT  =         0.0000
 ------------------------------------------------------------------------------
