-------------------------------------------------------
          Amber 16 PMEMD                              2016
          -------------------------------------------------------

  [-O]verwriting output

File Assignments:

 Here is the input file:

!NVE run
&cntrl
imin = 0,                           ! No Minimization
nmropt = 0,                         ! No NMR restraints read

! Nature and format of the input
ntx = 5,                            ! Coordinates and velocities will be read
irest = 1,                          ! Do not run a new simulation

! Nature and format of the output
ioutfm = 1,			    ! NetCDF format for output files
ntxo = 1,                           ! rstrt file in ASCII format
ntpr = 500,                         ! inf in output every ntpr steps
ntwr = 500,                         ! rstrt file every ntwr steps
ntwx = 20,                          ! mdcrd file every ntwx steps
ntwv = -1,                          ! mdvel without velocities
ntwe = 0,                           ! Energies and temperatures not written in
idecomp = 0,                        ! No energy decomposition
iwrap = 1,                          ! Coordinates of the restart and mdcrd file

! Frozen or restrained atoms
ibelly = 0,                         ! No frozen atoms
ntr=0,                              ! Harmonic potential restraints

! Molecular dynamics
nstlim = 20000,                     ! Number of MD-steps
dt = 0.0005,                        ! Time step

! Temperature regulation
ntt = 0,                            ! Constant total energy

! P and V regulation
ntp = 0,                            ! No P control
ntb = 1,                            ! constant V

! SHAKE variables
ntc = 1,                            ! Bonds involving H are constrained
ntf = 1,                            ! Bond interaction involving H are ommited.

cut = 9.0,                          ! Nonbonded cutoff
/
&end

Note: ig = -1. Setting random seed to   395048 based on wallclock time in
      microseconds.

--------------------------------------------------------------------------------
   1.  RESOURCE   USE:
--------------------------------------------------------------------------------

 getting new box info from bottom of inpcrd
 NATOM  =   29433 NTYPES =      16 NBONH =   28406 MBONA  =    1038
 NTHETH =    2390 MTHETA =    1396 NPHIH =    4771 MPHIA  =    4486
 NHPARM =       0 NPARM  =       0 NNB   =   47902 NRES   =    9251
 NBONA  =    1038 NTHETA =    1396 NPHIA =    4486 NUMBND =      69
 NUMANG =     160 NPTRA  =     189 NATYP =      34 NPHB   =       1
 IFBOX  =       2 NMXRS  =      24 IFCAP =       0 NEXTRA =       0
 NCOPY  =       0

     BOX TYPE: TRUNCATED OCTAHEDRON

--------------------------------------------------------------------------------
   2.  CONTROL  DATA  FOR  THE  RUN
--------------------------------------------------------------------------------

default_name

General flags:
     imin    =       0, nmropt  =       0

Nature and format of input:
     ntx     =       5, irest   =       1, ntrx    =       1

Nature and format of output:
     ntxo    =       1, ntpr    =     500, ntrx    =       1, ntwr    =     500
     iwrap   =       1, ntwx    =      20, ntwv    =      -1, ntwe    =       0
     ioutfm  =       1, ntwprt  =       0, idecomp =       0, rbornstat=      0

Potential function:
     ntf     =       1, ntb     =       1, igb     =       0, nsnb    =      25
     ipol    =       0, gbsa    =       0, iesp    =       0
     dielc   =   1.00000, cut     =   9.00000, intdiel =   1.00000

Frozen or restrained atoms:
     ibelly  =       0, ntr     =       0

Molecular dynamics:
     nstlim  =     20000, nscm    =      1000, nrespa  =         1
     t       =   0.00000, dt      =   0.00050, vlimit  =  -1.00000

Ewald parameters:
     verbose =       0, ew_type =       0, nbflag  =       1, use_pme =       1
     vdwmeth =       1, eedmeth =       1, netfrc  =       1
     Box X =   72.643   Box Y =   72.643   Box Z =   72.643
     Alpha =  109.471   Beta  =  109.471   Gamma =  109.471
     NFFT1 =   80       NFFT2 =   80       NFFT3 =   80
     Cutoff=    9.000   Tol   =0.100E-04
     Ewald Coefficient =  0.30768
     Interpolation order =    4

--------------------------------------------------------------------------------
   3.  ATOMIC COORDINATES AND VELOCITIES
--------------------------------------------------------------------------------

default_name
 begin time read from input coords = 87010.000 ps

 Number of triangulated 3-point waters found:     9119

     Sum of charges from parm topology file =  -0.00000008
     Forcing neutrality...

--------------------------------------------------------------------------------
   4.  RESULTS
 NSTEP =      500   TIME(PS) =   87010.250  TEMP(K) =   298.01  PRESS =     0.0
 Etot   =    -66779.0328  EKtot   =     26144.1406  EPtot      =    -92923.1735
 BOND   =     16578.6511  ANGLE   =      1015.0338  DIHED      =      1644.6166
 1-4 NB =       447.9653  1-4 EEL =      4544.5464  VDWAALS    =     16858.8122
 EELEC  =   -134012.7988  EHBOND  =         0.0000  RESTRAINT  =         0.0000
 ------------------------------------------------------------------------------

      A V E R A G E S   O V E R      40 S T E P S

 NSTEP =    20000   TIME(PS) =   87020.000  TEMP(K) =   299.54  PRESS =     0.0
 Etot   =    -66782.6860  EKtot   =     26278.8412  EPtot      =    -93061.5272
 BOND   =     16475.2527  ANGLE   =      1044.1793  DIHED      =      1647.7725
 1-4 NB =       445.9843  1-4 EEL =      4540.5495  VDWAALS    =     17002.3722
 EELEC  =   -134217.6378  EHBOND  =         0.0000  RESTRAINT  =         0.0000
 ------------------------------------------------------------------------------

      R M S  F L U C T U A T I O N S

 NSTEP =    20000   TIME(PS) =   87020.000  TEMP(K) =     1.10  PRESS =     0.0
 Etot   =         1.9755  EKtot   =        96.2034  EPtot      =        96.8458
 BOND   =        99.0935  ANGLE   =        25.8051  DIHED      =        14.2043
 1-4 NB =         8.6739  1-4 EEL =        19.7596  VDWAALS    =       189.5341
 EELEC  =       242.4655  EHBOND  =         0.0000  RESTRAINT  =         0.0000
 ------------------------------------------------------------------------------
