-------------------------------------------------------
          Amber 16 PMEMD                              2016
          -------------------------------------------------------

  [-O]verwriting output

File Assignments:

 Here is the input file:

!NVE run
&cntrl
imin = 0,                           ! No Minimization
nmropt = 0,                         ! No NMR restraints read

! Nature and format of the input
ntx = 5,                            ! Coordinates will be read, assign new velo
irest = 1,                          ! Do not run a new simulation

! Nature and format of the output
ioutfm = 1,			    ! NetCDF format for output files
ntxo = 1,                           ! rstrt file in ASCII format
ntpr = 500,                         ! inf in output every ntpr steps
ntwr = 500,                         ! rstrt file every ntwr steps
ntwx = 1,                           ! mdcrd file every ntwx steps
ntwv = -1,                          ! mdvel without velocities
ntwe = 0,                           ! Energies and temperatures not written in
idecomp = 0,                        ! No energy decomposition
iwrap = 1,                          ! Coordinates of the restart and mdcrd file

! Frozen or restrained atoms
ibelly = 0,                         ! No frozen atoms
ntr=0,                              ! Harmonic potential restraints

! Molecular dynamics
nstlim = 2000,                      ! Number of MD-steps
dt = 0.0005,                        ! Time step

! Temperature regulation
ntt = 0,                            ! Constant total energy

! P and V regulation
ntp = 0,                            ! No P control
ntb = 1,                            ! constant V

! SHAKE variables
ntc = 1,                            ! Bonds involving H are constrained
ntf = 1,                            ! Bond interaction involving H are ommited.

cut = 9.0,                          ! Nonbonded cutoff
/
&end

Note: ig = -1. Setting random seed to    61910 based on wallclock time in
      microseconds.

--------------------------------------------------------------------------------
   1.  RESOURCE   USE:
--------------------------------------------------------------------------------

 getting new box info from bottom of inpcrd
 NATOM  =   23082 NTYPES =      16 NBONH =   22055 MBONA  =    1038
 NTHETH =    2390 MTHETA =    1396 NPHIH =    4631 MPHIA  =    3488
 NHPARM =       0 NPARM  =       0 NNB   =   39434 NRES   =    7134
 NBONA  =    1038 NTHETA =    1396 NPHIA =    3488 NUMBND =      41
 NUMANG =      86 NPTRA  =      41 NATYP =      28 NPHB   =       1
 IFBOX  =       1 NMXRS  =      24 IFCAP =       0 NEXTRA =       0
 NCOPY  =       0

     BOX TYPE: RECTILINEAR

--------------------------------------------------------------------------------
   2.  CONTROL  DATA  FOR  THE  RUN
--------------------------------------------------------------------------------

default_name

General flags:
     imin    =       0, nmropt  =       0

Nature and format of input:
     ntx     =       5, irest   =       1, ntrx    =       1

Nature and format of output:
     ntxo    =       1, ntpr    =     500, ntrx    =       1, ntwr    =     500
     iwrap   =       1, ntwx    =       1, ntwv    =      -1, ntwe    =       0
     ioutfm  =       1, ntwprt  =       0, idecomp =       0, rbornstat=      0

Potential function:
     ntf     =       1, ntb     =       1, igb     =       0, nsnb    =      25
     ipol    =       0, gbsa    =       0, iesp    =       0
     dielc   =   1.00000, cut     =   9.00000, intdiel =   1.00000

Frozen or restrained atoms:
     ibelly  =       0, ntr     =       0

Molecular dynamics:
     nstlim  =      2000, nscm    =      1000, nrespa  =         1
     t       =   0.00000, dt      =   0.00050, vlimit  =  -1.00000

Ewald parameters:
     verbose =       0, ew_type =       0, nbflag  =       1, use_pme =       1
     vdwmeth =       1, eedmeth =       1, netfrc  =       1
     Box X =   60.254   Box Y =   72.816   Box Z =   52.562
     Alpha =   90.000   Beta  =   90.000   Gamma =   90.000
     NFFT1 =   64       NFFT2 =   80       NFFT3 =   56
     Cutoff=    9.000   Tol   =0.100E-04
     Ewald Coefficient =  0.30768
     Interpolation order =    4

--------------------------------------------------------------------------------
   3.  ATOMIC COORDINATES AND VELOCITIES
--------------------------------------------------------------------------------

default_name
 begin time read from input coords =    30.000 ps

 Number of triangulated 3-point waters found:     7002

     Sum of charges from parm topology file =  -0.00000008
     Forcing neutrality...

--------------------------------------------------------------------------------
   4.  RESULTS
 NSTEP =      500   TIME(PS) =      30.250  TEMP(K) =   305.65  PRESS =     0.0
 Etot   =    -51409.6522  EKtot   =     21028.5234  EPtot      =    -72438.1757
 BOND   =     13093.9718  ANGLE   =      1213.3518  DIHED      =      1378.5327
 1-4 NB =       449.1854  1-4 EEL =      4565.8190  VDWAALS    =     12990.2780
 EELEC  =   -106129.3144  EHBOND  =         0.0000  RESTRAINT  =         0.0000
 ------------------------------------------------------------------------------

      A V E R A G E S   O V E R       4 S T E P S

 NSTEP =     2000   TIME(PS) =      31.000  TEMP(K) =   306.19  PRESS =     0.0
 Etot   =    -51411.6836  EKtot   =     21065.4375  EPtot      =    -72477.1211
 BOND   =     13065.6920  ANGLE   =      1181.9249  DIHED      =      1379.5211
 1-4 NB =       450.2339  1-4 EEL =      4621.0332  VDWAALS    =     13023.2110
 EELEC  =   -106198.7372  EHBOND  =         0.0000  RESTRAINT  =         0.0000
 ------------------------------------------------------------------------------

      R M S  F L U C T U A T I O N S

 NSTEP =     2000   TIME(PS) =      31.000  TEMP(K) =     1.08  PRESS =     0.0
 Etot   =         2.7403  EKtot   =        74.4150  EPtot      =        77.0748
 BOND   =        79.3673  ANGLE   =        37.6455  DIHED      =        13.8665
 1-4 NB =        13.0373  1-4 EEL =        50.0563  VDWAALS    =       124.3306
 EELEC  =       143.2271  EHBOND  =         0.0000  RESTRAINT  =         0.0000
 ------------------------------------------------------------------------------
