-------------------------------------------------------
          Amber 16 PMEMD                              2016
          -------------------------------------------------------

  [-O]verwriting output

File Assignments:

 Here is the input file:

Equilibration with solute restrictions
&cntrl
imin = 0,                           ! No Minimization
nmropt = 0,                         ! No NMR restraints read

! Nature and format of the input
ntx = 5,                            ! Coordinates but no velocities will be rea
irest = 1,                          ! Do not run a new simulation

! Nature and format of the output
ntxo = 1,                           ! rstrt file in ASCII format
ntpr = 500,                         ! inf in output every ntpr steps
ntwr = 500,                         ! rstrt file every ntwr steps
ntwx = 500,                         ! mdcrd file every ntwx steps
ntwv = 0,                           ! mdvel without velocities
ntwe = 0,                           ! Energies and temperatures not written in
idecomp = 0,                        ! No energy decomposition
iwrap = 1,                          ! Coordinates of the restart and mdcrd file

! Frozen or restrained atoms
ibelly = 0,                         ! No frozen atoms
ntr=1,                              ! Harmonic potential restraints
restraint_wt = 0.13,                ! The weight for the positional restraints
restraintmask = ':1-124@N,CA,C,O',  ! restrained residues

! Molecular dynamics
nstlim = 50000,                     ! Number of MD-steps
dt = 0.002,                         ! Time step

! Temperature regulation
ntt = 3,                            ! Langevin thermostat
gamma_ln = 5,                       ! Gamma constant for Langevin
temp0 = 300.0,                      ! Reference T at which the system is to be
tempi = 300.0,                      ! Initial T
ig = -1,                            ! Seed for the RNG

! P and V regulation
ntp = 1,                            ! Constant P. Isotropic scaling
barostat = 1,                       ! Berendsen barostat
taup = 1,                           ! Pressure relaxation time
nrespa = 1,                         ! Evaluate at each step
ntb = 2,                            ! Periodic box for constant P

! SHAKE variables
ntc = 2,                            ! Bonds involving H are constrained
ntf = 2,                            ! Bond interaction involving H are ommited.

cut = 10.0,                         ! Nonbonded cutoff
/
&end

Note: ig = -1. Setting random seed to    60850 based on wallclock time in
      microseconds.

--------------------------------------------------------------------------------
   1.  RESOURCE   USE:
--------------------------------------------------------------------------------

 getting new box info from bottom of inpcrd
 NATOM  =   34738 NTYPES =      17 NBONH =   33775 MBONA  =     974
 NTHETH =    2235 MTHETA =    1312 NPHIH =    4489 MPHIA  =    4224
 NHPARM =       0 NPARM  =       0 NNB   =   54434 NRES   =   11056
 NBONA  =     974 NTHETA =    1312 NPHIA =    4224 NUMBND =      69
 NUMANG =     158 NPTRA  =     189 NATYP =      35 NPHB   =       1
 IFBOX  =       2 NMXRS  =      24 IFCAP =       0 NEXTRA =       0
 NCOPY  =       0

     BOX TYPE: TRUNCATED OCTAHEDRON

--------------------------------------------------------------------------------
   2.  CONTROL  DATA  FOR  THE  RUN
--------------------------------------------------------------------------------

default_name

General flags:
     imin    =       0, nmropt  =       0

Nature and format of input:
     ntx     =       5, irest   =       1, ntrx    =       1

Nature and format of output:
     ntxo    =       1, ntpr    =     500, ntrx    =       1, ntwr    =     500
     iwrap   =       1, ntwx    =     500, ntwv    =       0, ntwe    =       0
     ioutfm  =       1, ntwprt  =       0, idecomp =       0, rbornstat=      0

Potential function:
     ntf     =       2, ntb     =       2, igb     =       0, nsnb    =      25
     ipol    =       0, gbsa    =       0, iesp    =       0
     dielc   =   1.00000, cut     =  10.00000, intdiel =   1.00000

Frozen or restrained atoms:
     ibelly  =       0, ntr     =       1
     restraint_wt =   0.13000

Molecular dynamics:
     nstlim  =     50000, nscm    =         0, nrespa  =         1
     t       =   0.00000, dt      =   0.00200, vlimit  =  -1.00000

Langevin dynamics temperature regulation:
     ig      =   60850
     temp0   = 300.00000, tempi   = 300.00000, gamma_ln=   5.00000

Pressure regulation:
     ntp     =       1
     pres0   =   1.00000, comp    =  44.60000, taup    =   1.00000

SHAKE:
     ntc     =       2, jfastw  =       0
     tol     =   0.00001

Ewald parameters:
     verbose =       0, ew_type =       0, nbflag  =       1, use_pme =       1
     vdwmeth =       1, eedmeth =       1, netfrc  =       1
     Box X =   76.843   Box Y =   76.843   Box Z =   76.843
     Alpha =  109.471   Beta  =  109.471   Gamma =  109.471
     NFFT1 =   80       NFFT2 =   80       NFFT3 =   80
     Cutoff=   10.000   Tol   =0.100E-04
     Ewald Coefficient =  0.27511
     Interpolation order =    4

    LOADING THE CONSTRAINED ATOMS AS GROUPS

   5.  REFERENCE ATOM COORDINATES

  default_name
     Mask :1-124@N,CA,C,O; matches   496 atoms

--------------------------------------------------------------------------------
   3.  ATOMIC COORDINATES AND VELOCITIES
--------------------------------------------------------------------------------

default_name
 begin time read from input coords =  2840.000 ps

 Number of triangulated 3-point waters found:    10931

     Sum of charges from parm topology file =  -0.00000008
     Forcing neutrality...

--------------------------------------------------------------------------------
   4.  RESULTS
 NSTEP =      500   TIME(PS) =    2841.000  TEMP(K) =   299.55  PRESS =  -156.7
 Etot   =    -87363.1364  EKtot   =     20964.9023  EPtot      =   -108328.0387
 BOND   =       382.8149  ANGLE   =      1046.7593  DIHED      =      1587.2778
 1-4 NB =       421.0463  1-4 EEL =      4060.5490  VDWAALS    =     14316.6360
 EELEC  =   -130155.7128  EHBOND  =         0.0000  RESTRAINT  =        12.5908
 EAMBER (non-restraint)  =   -108340.6295
 EKCMT  =      9723.4420  VIRIAL  =     10905.8156  VOLUME     =    349509.0578
                                                    Density    =         1.0011
 ------------------------------------------------------------------------------

      A V E R A G E S   O V E R     100 S T E P S

 NSTEP =    50000   TIME(PS) =    2940.000  TEMP(K) =   300.32  PRESS =     7.9
 Etot   =    -87264.5001  EKtot   =     21018.4306  EPtot      =   -108282.9307
 BOND   =       379.7440  ANGLE   =      1022.5128  DIHED      =      1588.1434
 1-4 NB =       423.0865  1-4 EEL =      4079.7040  VDWAALS    =     14449.3197
 EELEC  =   -130248.2002  EHBOND  =         0.0000  RESTRAINT  =        22.7591
 EAMBER (non-restraint)  =   -108305.6898
 EKCMT  =      9798.5684  VIRIAL  =      9739.2581  VOLUME     =    349248.0199
                                                    Density    =         1.0018
 ------------------------------------------------------------------------------

      R M S  F L U C T U A T I O N S

 NSTEP =    50000   TIME(PS) =    2940.000  TEMP(K) =     1.67  PRESS =   104.6
 Etot   =       202.4868  EKtot   =       116.8584  EPtot      =       150.7504
 BOND   =        18.1646  ANGLE   =        25.0079  DIHED      =        14.1544
 1-4 NB =         8.1135  1-4 EEL =        27.7600  VDWAALS    =       132.8447
 EELEC  =       210.5522  EHBOND  =         0.0000  RESTRAINT  =         3.4018
 EAMBER (non-restraint)  =       147.3486
 EKCMT  =        85.1590  VIRIAL  =       782.8521  VOLUME     =       488.8300
                                                    Density    =         0.0014
 ------------------------------------------------------------------------------
