-------------------------------------------------------
          Amber 16 PMEMD                              2016
          -------------------------------------------------------

  [-O]verwriting output

File Assignments:

 Here is the input file:

Equilibration with solute restrictions
&cntrl
imin = 0,                           ! No Minimization
nmropt = 0,                         ! No NMR restraints read

! Nature and format of the input
ntx = 5,                            ! Coordinates but no velocities will be rea
irest = 1,                          ! Do not run a new simulation

! Nature and format of the output
ntxo = 1,                           ! rstrt file in ASCII format
ntpr = 500,                         ! inf in output every ntpr steps
ntwr = 500,                         ! rstrt file every ntwr steps
ntwx = 500,                         ! mdcrd file every ntwx steps
ntwv = 0,                           ! mdvel without velocities
ntwe = 0,                           ! Energies and temperatures not written in
idecomp = 0,                        ! No energy decomposition
iwrap = 1,                          ! Coordinates of the restart and mdcrd file

! Frozen or restrained atoms
ibelly = 0,                         ! No frozen atoms
ntr=1,                              ! Harmonic potential restraints
restraint_wt = 0.11,                ! The weight for the positional restraints
restraintmask = ':1-124@N,CA,C,O',  ! restrained residues

! Molecular dynamics
nstlim = 50000,                     ! Number of MD-steps
dt = 0.002,                         ! Time step

! Temperature regulation
ntt = 3,                            ! Langevin thermostat
gamma_ln = 5,                       ! Gamma constant for Langevin
temp0 = 300.0,                      ! Reference T at which the system is to be
tempi = 300.0,                      ! Initial T
ig = -1,                            ! Seed for the RNG

! P and V regulation
ntp = 1,                            ! Constant P. Isotropic scaling
barostat = 1,                       ! Berendsen barostat
taup = 1,                           ! Pressure relaxation time
nrespa = 1,                         ! Evaluate at each step
ntb = 2,                            ! Periodic box for constant P

! SHAKE variables
ntc = 2,                            ! Bonds involving H are constrained
ntf = 2,                            ! Bond interaction involving H are ommited.

cut = 10.0,                         ! Nonbonded cutoff
/
&end

Note: ig = -1. Setting random seed to   213855 based on wallclock time in
      microseconds.

--------------------------------------------------------------------------------
   1.  RESOURCE   USE:
--------------------------------------------------------------------------------

 getting new box info from bottom of inpcrd
 NATOM  =   34738 NTYPES =      17 NBONH =   33775 MBONA  =     974
 NTHETH =    2235 MTHETA =    1312 NPHIH =    4489 MPHIA  =    4224
 NHPARM =       0 NPARM  =       0 NNB   =   54434 NRES   =   11056
 NBONA  =     974 NTHETA =    1312 NPHIA =    4224 NUMBND =      69
 NUMANG =     158 NPTRA  =     189 NATYP =      35 NPHB   =       1
 IFBOX  =       2 NMXRS  =      24 IFCAP =       0 NEXTRA =       0
 NCOPY  =       0

     BOX TYPE: TRUNCATED OCTAHEDRON

--------------------------------------------------------------------------------
   2.  CONTROL  DATA  FOR  THE  RUN
--------------------------------------------------------------------------------

default_name

General flags:
     imin    =       0, nmropt  =       0

Nature and format of input:
     ntx     =       5, irest   =       1, ntrx    =       1

Nature and format of output:
     ntxo    =       1, ntpr    =     500, ntrx    =       1, ntwr    =     500
     iwrap   =       1, ntwx    =     500, ntwv    =       0, ntwe    =       0
     ioutfm  =       1, ntwprt  =       0, idecomp =       0, rbornstat=      0

Potential function:
     ntf     =       2, ntb     =       2, igb     =       0, nsnb    =      25
     ipol    =       0, gbsa    =       0, iesp    =       0
     dielc   =   1.00000, cut     =  10.00000, intdiel =   1.00000

Frozen or restrained atoms:
     ibelly  =       0, ntr     =       1
     restraint_wt =   0.11000

Molecular dynamics:
     nstlim  =     50000, nscm    =         0, nrespa  =         1
     t       =   0.00000, dt      =   0.00200, vlimit  =  -1.00000

Langevin dynamics temperature regulation:
     ig      =  213855
     temp0   = 300.00000, tempi   = 300.00000, gamma_ln=   5.00000

Pressure regulation:
     ntp     =       1
     pres0   =   1.00000, comp    =  44.60000, taup    =   1.00000

SHAKE:
     ntc     =       2, jfastw  =       0
     tol     =   0.00001

Ewald parameters:
     verbose =       0, ew_type =       0, nbflag  =       1, use_pme =       1
     vdwmeth =       1, eedmeth =       1, netfrc  =       1
     Box X =   76.910   Box Y =   76.910   Box Z =   76.910
     Alpha =  109.471   Beta  =  109.471   Gamma =  109.471
     NFFT1 =   80       NFFT2 =   80       NFFT3 =   80
     Cutoff=   10.000   Tol   =0.100E-04
     Ewald Coefficient =  0.27511
     Interpolation order =    4

    LOADING THE CONSTRAINED ATOMS AS GROUPS

   5.  REFERENCE ATOM COORDINATES

  default_name
     Mask :1-124@N,CA,C,O; matches   496 atoms

--------------------------------------------------------------------------------
   3.  ATOMIC COORDINATES AND VELOCITIES
--------------------------------------------------------------------------------

default_name
 begin time read from input coords =  2940.000 ps

 Number of triangulated 3-point waters found:    10931

     Sum of charges from parm topology file =  -0.00000008
     Forcing neutrality...

--------------------------------------------------------------------------------
   4.  RESULTS
 NSTEP =      500   TIME(PS) =    2941.000  TEMP(K) =   302.45  PRESS =   150.8
 Etot   =    -86944.1465  EKtot   =     21167.6953  EPtot      =   -108111.8419
 BOND   =       366.4446  ANGLE   =      1055.7937  DIHED      =      1578.9494
 1-4 NB =       422.8365  1-4 EEL =      4073.9739  VDWAALS    =     14536.6445
 EELEC  =   -130157.8433  EHBOND  =         0.0000  RESTRAINT  =        11.3589
 EAMBER (non-restraint)  =   -108123.2007
 EKCMT  =      9946.0668  VIRIAL  =      8806.4010  VOLUME     =    350055.1288
                                                    Density    =         0.9995
 ------------------------------------------------------------------------------

      A V E R A G E S   O V E R     100 S T E P S

 NSTEP =    50000   TIME(PS) =    3040.000  TEMP(K) =   300.19  PRESS =     2.8
 Etot   =    -87298.6631  EKtot   =     21009.4129  EPtot      =   -108308.0760
 BOND   =       374.1297  ANGLE   =      1018.8697  DIHED      =      1588.0759
 1-4 NB =       422.8005  1-4 EEL =      4090.6667  VDWAALS    =     14463.7051
 EELEC  =   -130285.1006  EHBOND  =         0.0000  RESTRAINT  =        18.7770
 EAMBER (non-restraint)  =   -108326.8530
 EKCMT  =      9809.1607  VIRIAL  =      9787.9465  VOLUME     =    349356.6998
                                                    Density    =         1.0015
 ------------------------------------------------------------------------------

      R M S  F L U C T U A T I O N S

 NSTEP =    50000   TIME(PS) =    3040.000  TEMP(K) =     1.40  PRESS =   102.6
 Etot   =       167.7286  EKtot   =        97.8475  EPtot      =       131.9017
 BOND   =        17.8489  ANGLE   =        23.4397  DIHED      =        13.9492
 1-4 NB =         8.0721  1-4 EEL =        26.0275  VDWAALS    =       133.7084
 EELEC  =       200.8351  EHBOND  =         0.0000  RESTRAINT  =         2.2909
 EAMBER (non-restraint)  =       129.6108
 EKCMT  =        70.0216  VIRIAL  =       771.5115  VOLUME     =       473.5579
                                                    Density    =         0.0014
 ------------------------------------------------------------------------------
